*
*
*
*                       LINUX           Mon May 12 10:32:36 2025
*
*
*
*  PROGRAM  advgen
*
*  HSPICE LIBRARY
*
*
*

*
.SUBCKT NOT VDD VSS INPUT OUTPUT
*
*
*  caps2d version: 10
*
*
*       TRANSISTOR CARDS
*
*
MavD1_1	OUTPUT#5	INPUT#4	VSS#6	VSS#1
+ nmos1v#20ivpcell#20gpdk090	L=0.13U	W=1.3U
+ AD=0.377P	AS=0.377P	PD=3.18U	PS=3.18U
+ simW=1.3e-06 fw=1.3e-06
MavD7_1	OUTPUT#2	INPUT#2	VDD#6	VDD#1
+ pmos1v#20ivpcell#20gpdk090	L=0.13U	W=2.6U
+ AD=0.754P	AS=0.754P	PD=5.78U	PS=5.78U
+ simW=2.6e-06 fw=2.6e-06
*
*
*       RESISTOR AND CAP/DIODE CARDS
*
Ri1	INPUT#1	INPUT	   12.2644	$mt1	$X=2.72 $Y=3.12
Ri4	VDD#2	VDD	    0.3220	$mt1	$X=3.615 $Y=6.65
Ri5	VDD#2	VDD#5	    1.0217	$mt1	$X=3.615 $Y=6.11
Ri6	VDD#5	VDD#6	    1.5000	$mt1	$X=3.615 $Y=4.64
Ri7	VDD#1	VDD#2	   15.0000	$mt1	$X=4.08 $Y=6.34
Ri8	VDD#1	VDD#2	   15.0000	$mt1	$X=3.61 $Y=6.34
Ri11	VSS#2	VSS	    0.2297	$mt1	$X=3.615 $Y=0.275
Ri12	VSS#2	VSS#5	    0.6217	$mt1	$X=3.615 $Y=0.74
Ri13	VSS#5	VSS#6	    3.0000	$mt1	$X=3.615 $Y=1.56
Ri14	VSS#1	VSS#2	   15.0000	$mt1	$X=4.08 $Y=0.51
Ri15	VSS#1	VSS#2	   15.0000	$mt1	$X=3.61 $Y=0.51
Ri16	OUTPUT	OUTPUT#1	    1.9438	$mt1	$X=5.516 $Y=3.5
Ri18	OUTPUT#1	OUTPUT#4	    1.8954	$mt1
+ $X=4.075 $Y=2.775
Ri19	OUTPUT#4	OUTPUT#5	    3.0000	$mt1
+ $X=4.075 $Y=1.56
Ri20	OUTPUT#2	OUTPUT#1	    1.5000	$mt1
+ $X=4.075 $Y=4.64
Rj1	INPUT#2	INPUT#3	   46.6631	$poly
+ $X=3.845 $Y=3.06
Rj2	INPUT#3	INPUT#1	  100.8897	$poly	$X=3.3 $Y=2.73
Rj3	INPUT#3	INPUT#4	   39.7401	$poly
+ $X=3.845 $Y=2.445
*
*       CAPACITOR CARDS
*
*
C1	VDD	VSS	5.132E-16	$X=3.612 $Y=6.8225
C2	INPUT	VSS	1.380E-16	$X=0.853 $Y=3.508
C3	OUTPUT	VSS	1.266E-16	$X=6.285 $Y=3.498
C4	INPUT#2	VSS	1.569E-16	$X=3.842 $Y=4.5885
C5	INPUT#4	VSS	1.091E-16	$X=3.842 $Y=1.586
C6	INPUT#1	VSS	2.069E-16	$X=2.8875 $Y=2.9085
C7	VDD#1	VSS	3.794E-17	$X=3.842 $Y=5.5295
C8	VDD#5	VSS	1.678E-16	$X=3.612 $Y=4.723
C9	OUTPUT#4	VSS	1.306E-16	$X=4.072 $Y=1.841
C10	OUTPUT#1	VSS	2.931E-16	$X=4.072 $Y=4.3565
C11	INPUT#3	VSS	8.806E-17	$X=3.842 $Y=2.7505
C12	VDD#2	VSS	2.176E-17	$X=3.937 $Y=6.3375
*
*
.ENDS NOT
*
