*
*
*
*                       LINUX           Mon May 12 09:05:11 2025
*
*
*
*  PROGRAM  advgen
*
*  HSPICE LIBRARY
*
*
*

*
.SUBCKT NOT VDD VSS INPUT OUTPUT
*
*
*  caps2d version: 10
*
*
*       TRANSISTOR CARDS
*
*
MavD1_1	OUTPUT#9	INPUT#3	VSS#2	OUTPUT#3
+ nmos1v#20ivpcell#20gpdk090	L=0.13U	W=1.3U
+ AD=0.377P	AS=0.377P	PD=3.18U	PS=3.18U
+ simW=1.3e-06 fw=1.3e-06
MavD7_1	OUTPUT#6	INPUT#2	VDD#2	VDD#3
+ pmos1v#20ivpcell#20gpdk090	L=0.13U	W=2.6U
+ AD=0.754P	AS=0.754P	PD=5.78U	PS=5.78U
+ simW=2.6e-06 fw=2.6e-06
*
*
*       RESISTOR AND CAP/DIODE CARDS
*
Ri1	INPUT#1	INPUT	   12.6424	$mt1	$X=2.82 $Y=2.84
Ri2	OUTPUT	OUTPUT#1	    2.1107	$mt1	$X=5.3355 $Y=3.5
Ri3	OUTPUT#1	OUTPUT#2	    0.7305	$mt1
+ $X=3.725 $Y=2.9
Ri4	OUTPUT#2	OUTPUT#4	    1.1941	$mt1	$X=3.28 $Y=2.3
Ri6	OUTPUT#1	OUTPUT#7	    0.9671	$mt1
+ $X=3.725 $Y=3.67
Ri8	OUTPUT#2	OUTPUT#10	    0.6188	$mt1
+ $X=3.725 $Y=2.09
Ri10	OUTPUT#3	OUTPUT#4	    3.0000	$mt1
+ $X=2.84 $Y=1.29
Ri11	OUTPUT#6	OUTPUT#7	    1.5000	$mt1
+ $X=3.725 $Y=5.08
Ri12	OUTPUT#9	OUTPUT#10	    3.0000	$mt1
+ $X=3.725 $Y=1.29
Ri13	VDD	VDD#1	    1.1994	$mt1	$X=3.265 $Y=6.63
Ri14	VDD#1	VDD#2	    1.5000	$mt1	$X=3.265 $Y=5.08
Ri15	VDD	VDD#4	    1.2937	$mt1	$X=2.84 $Y=6.63
Ri17	VDD#3	VDD#4	    1.5000	$mt1	$X=2.84 $Y=5.08
Ri18	VSS	VSS#1	    0.7223	$mt1	$X=3.265 $Y=0.38
Ri19	VSS#1	VSS#2	    3.0000	$mt1	$X=3.265 $Y=1.29
Rj1	INPUT#2	INPUT#1	   83.4018	$poly
+ $X=3.49 $Y=3.275
Rj2	INPUT#1	INPUT#3	   77.4018	$poly
+ $X=3.49 $Y=2.415
*
*       CAPACITOR CARDS
*
*
C1	VDD	OUTPUT	5.394E-16	$X=3.053 $Y=6.9345
C2	VSS	OUTPUT	5.388E-16	$X=5.166 $Y=0.06
C3	INPUT	OUTPUT	1.572E-16	$X=0.994 $Y=3.4975
C4	INPUT#2	OUTPUT	1.939E-16	$X=3.4895 $Y=4.9595
C5	INPUT#3	OUTPUT	1.314E-16	$X=3.4885 $Y=1.39
C6	INPUT#1	OUTPUT	3.062E-16	$X=3.155 $Y=2.84
C7	VDD#3	OUTPUT	2.348E-17	$X=3.1795 $Y=5.0735
C8	VSS#1	OUTPUT	1.616E-16	$X=3.2635 $Y=1.1575
C9	VDD#1	OUTPUT	1.626E-16	$X=3.2645 $Y=5.2015
C10	VDD#4	OUTPUT	2.817E-17	$X=2.8395 $Y=5.2015
*
*
.ENDS NOT
*
